0,   100.00, 33, 0, 1, 60.00     / PSS(R)E-33.7    FRI, AUG 24 2018  11:30
 GO Competition Network Model 03
 2015 S             REAL_TIME SEQUENCE RUN AT 2015/07/22 11.
     1,'A1          ', 115.0000,1,   1,   1,   1,0.99958,  -4.5847,1.05000,0.95000,1.10000,0.90000
     2,'A2          ', 115.0000,1,   1,   1,   1,1.01177,  -9.6789,1.05000,0.95000,1.10000,0.90000
     3,'A3          ',  35.0000,1,   1,   1,   1,0.99154,  -6.5114,1.05000,0.95000,1.10000,0.90000
     4,'A4          ', 115.0000,1,   1,   1,   1,1.01402,  -2.6142,1.05000,0.95000,1.10000,0.90000
     5,'A5          ',  13.0000,1,   1,   1,   1,1.01114, -10.1848,1.05000,0.95000,1.10000,0.90000
     6,'A6          ',  14.0000,2,   1,   1,   1,1.00020,  -6.6498,1.05000,0.95000,1.10000,0.90000
     7,'A7          ', 115.0000,1,   1,   1,   1,0.99455,  -6.1349,1.05000,0.95000,1.10000,0.90000
     8,'A8          ',  13.0000,1,   1,   1,   1,1.01211,  -9.5949,1.05000,0.95000,1.10000,0.90000
     9,'A9          ',  35.0000,1,   1,   1,   1,0.99404,  -5.7829,1.05000,0.95000,1.10000,0.90000
    10,'A10         ', 115.0000,1,   1,   1,   1,1.01042, -10.1278,1.05000,0.95000,1.10000,0.90000
    11,'A11         ', 115.0000,1,   1,   1,   1,1.00778, -10.6928,1.05000,0.95000,1.10000,0.90000
    12,'A12         ',  35.0000,1,   1,   1,   1,0.99844,  -5.0742,1.05000,0.95000,1.10000,0.90000
    13,'A13         ',  13.0000,1,   1,   1,   1,1.01481,  -7.9278,1.05000,0.95000,1.10000,0.90000
    15,'A15         ',  35.0000,1,   1,   1,   1,1.00024,  -6.5892,1.05000,0.95000,1.10000,0.90000
    16,'A16         ', 115.0000,1,   1,   1,   1,1.01660,  -0.2770,1.05000,0.95000,1.10000,0.90000
    17,'A17         ', 115.0000,1,   1,   1,   1,1.01666,  -2.6030,1.05000,0.95000,1.10000,0.90000
    18,'A18         ', 230.0000,1,   1,   1,   1,1.01006,  -4.3685,1.05000,0.95000,1.10000,0.90000
    19,'A19         ', 230.0000,1,   1,   1,   1,1.01014,  -4.3108,1.05000,0.95000,1.10000,0.90000
    20,'A20         ',  13.0000,1,   1,   1,   1,1.01403,  -2.6849,1.05000,0.95000,1.10000,0.90000
    21,'A21         ', 115.0000,1,   1,   1,   1,1.00000, -13.2863,1.05000,0.95000,1.10000,0.90000
    22,'A22         ', 115.0000,1,   1,   1,   1,0.99436,  -4.8313,1.05000,0.95000,1.10000,0.90000
    23,'A23         ', 115.0000,2,   1,   1,   1,1.01000,   1.2436,1.05000,0.95000,1.10000,0.90000
    24,'A24         ', 115.0000,1,   1,   1,   1,0.98261,  -7.1554,1.05000,0.95000,1.10000,0.90000
    25,'A25         ',  14.0000,2,   1,   1,   1,1.00020,  -6.6498,1.05000,0.95000,1.10000,0.90000
    27,'A27         ', 115.0000,1,   1,   1,   1,1.01017, -10.1128,1.05000,0.95000,1.10000,0.90000
    28,'A28         ',  35.0000,1,   1,   1,   1,0.99749,  -8.8297,1.05000,0.95000,1.10000,0.90000
    30,'A30         ', 115.0000,1,   1,   1,   1,0.98667,  -6.9350,1.05000,0.95000,1.10000,0.90000
    31,'A31         ', 230.0000,2,   1,   1,   1,1.00990,  -4.3673,1.05000,0.95000,1.10000,0.90000
    32,'A32         ', 115.0000,1,   1,   1,   1,1.01107,  -9.8166,1.05000,0.95000,1.10000,0.90000
    33,'A33         ', 230.0000,2,   1,   1,   1,1.00847,  -5.0386,1.05000,0.95000,1.10000,0.90000
    34,'A34         ',  35.0000,1,   1,   1,   1,0.99639,  -3.0379,1.05000,0.95000,1.10000,0.90000
    35,'A35         ', 230.0000,2,   1,   1,   1,1.01014,  -4.3108,1.05000,0.95000,1.10000,0.90000
    36,'A36         ', 230.0000,1,   1,   1,   1,1.00847,  -5.0386,1.05000,0.95000,1.10000,0.90000
    37,'A37         ', 230.0000,1,   1,   1,   1,1.01137,  -7.7354,1.05000,0.95000,1.10000,0.90000
    38,'A38         ', 230.0000,1,   1,   1,   1,1.00914,  -4.4927,1.05000,0.95000,1.10000,0.90000
    39,'A39         ',  35.0000,1,   1,   1,   1,0.99167,  -3.7326,1.05000,0.95000,1.10000,0.90000
    40,'A40         ', 115.0000,1,   1,   1,   1,1.01465,  -1.6323,1.05000,0.95000,1.10000,0.90000
    41,'A41         ', 230.0000,1,   1,   1,   1,1.00532,  -8.4108,1.05000,0.95000,1.10000,0.90000
    43,'A43         ', 115.0000,2,   1,   1,   1,1.01310,  -2.5915,1.05000,0.95000,1.10000,0.90000
    44,'A44         ', 115.0000,1,   1,   1,   1,1.00806,   0.6353,1.05000,0.95000,1.10000,0.90000
    45,'A45         ', 230.0000,2,   1,   1,   1,1.00847,  -5.0386,1.05000,0.95000,1.10000,0.90000
    46,'A46         ', 230.0000,2,   1,   1,   1,1.00480,  -7.1051,1.05000,0.95000,1.10000,0.90000
    47,'A47         ', 115.0000,2,   1,   1,   1,1.01310,  -1.0020,1.05000,0.95000,1.10000,0.90000
    49,'A49         ',  35.0000,1,   1,   1,   1,0.99639,  -3.0379,1.05000,0.95000,1.10000,0.90000
    50,'A50         ', 115.0000,1,   1,   1,   1,1.01215,  -9.6157,1.05000,0.95000,1.10000,0.90000
    51,'A51         ',  13.0000,1,   1,   1,   1,0.98182,  -7.2014,1.05000,0.95000,1.10000,0.90000
    52,'A52         ', 230.0000,2,   1,   1,   1,1.00510,  -8.4031,1.05000,0.95000,1.10000,0.90000
    53,'A53         ', 115.0000,1,   1,   1,   1,1.01391, -10.7264,1.05000,0.95000,1.10000,0.90000
    54,'A54         ',  35.0000,1,   1,   1,   1,0.99760, -10.8704,1.05000,0.95000,1.10000,0.90000
    55,'A55         ', 230.0000,2,   1,   1,   1,1.01080,  -6.6498,1.05000,0.95000,1.10000,0.90000
    56,'A56         ',  35.0000,1,   1,   1,   1,0.99959,  -4.9656,1.05000,0.95000,1.10000,0.90000
    57,'A57         ', 115.0000,1,   1,   1,   1,0.98849, -14.2173,1.05000,0.95000,1.10000,0.90000
    58,'A58         ', 115.0000,1,   1,   1,   1,1.02186,  -9.9200,1.05000,0.95000,1.10000,0.90000
    59,'A59         ',  35.0000,2,   1,   1,   1,1.04000,   2.3055,1.05000,0.95000,1.10000,0.90000
    60,'A60         ', 115.0000,1,   1,   1,   1,0.99479,  -5.7043,1.05000,0.95000,1.10000,0.90000
    61,'A61         ',  13.0000,1,   1,   1,   1,1.01010, -10.1328,1.05000,0.95000,1.10000,0.90000
    62,'A62         ', 115.0000,1,   1,   1,   1,1.01489, -10.6386,1.05000,0.95000,1.10000,0.90000
    63,'A63         ', 230.0000,1,   1,   1,   1,1.00766,  -7.1589,1.05000,0.95000,1.10000,0.90000
    64,'A64         ',  35.0000,1,   1,   1,   1,1.00904,   1.2143,1.05000,0.95000,1.10000,0.90000
    65,'A65         ',  14.0000,2,   1,   1,   1,1.02483,   2.4588,1.05000,0.95000,1.10000,0.90000
    66,'A66         ', 230.0000,1,   1,   1,   1,1.01006,  -4.3685,1.05000,0.95000,1.10000,0.90000
    67,'A67         ', 115.0000,1,   1,   1,   1,1.00045,  -2.9576,1.05000,0.95000,1.10000,0.90000
    68,'A68         ', 115.0000,1,   1,   1,   1,1.00706, -12.0638,1.05000,0.95000,1.10000,0.90000
    69,'A69         ', 230.0000,1,   1,   1,   1,1.01017,  -4.3010,1.05000,0.95000,1.10000,0.90000
    70,'A70         ',  35.0000,1,   1,   1,   1,1.00102,  -1.8489,1.05000,0.95000,1.10000,0.90000
    71,'A71         ', 115.0000,2,   1,   1,   1,1.01590,  -0.4387,1.05000,0.95000,1.10000,0.90000
    72,'A72         ', 115.0000,1,   1,   1,   1,1.01019, -10.0532,1.05000,0.95000,1.10000,0.90000
    73,'A73         ', 115.0000,1,   1,   1,   1,0.99510,  -6.1996,1.05000,0.95000,1.10000,0.90000
    74,'A74         ', 115.0000,1,   1,   1,   1,1.01225,  -9.5755,1.05000,0.95000,1.10000,0.90000
    75,'A75         ',  13.0000,1,   1,   1,   1,1.01465,  -2.7606,1.05000,0.95000,1.10000,0.90000
    76,'A76         ', 115.0000,1,   1,   1,   1,1.01597, -10.5323,1.05000,0.95000,1.10000,0.90000
    77,'A77         ',  35.0000,1,   1,   1,   1,0.98834,  -8.8261,1.05000,0.95000,1.10000,0.90000
    78,'A78         ',  35.0000,1,   1,   1,   1,0.98606,  -7.0055,1.05000,0.95000,1.10000,0.90000
    79,'A79         ', 230.0000,1,   1,   1,   1,1.01129,  -7.9058,1.05000,0.95000,1.10000,0.90000
    80,'A80         ',  14.0000,2,   1,   1,   1,1.01645,  -0.2827,1.05000,0.95000,1.10000,0.90000
    81,'A81         ', 115.0000,1,   1,   1,   1,1.01516,  -7.8891,1.05000,0.95000,1.10000,0.90000
    82,'A82         ', 115.0000,1,   1,   1,   1,1.01389, -10.7299,1.05000,0.95000,1.10000,0.90000
    83,'A83         ', 115.0000,1,   1,   1,   1,1.00857, -11.8873,1.05000,0.95000,1.10000,0.90000
    84,'A84         ', 115.0000,1,   1,   1,   1,1.00654, -12.1167,1.05000,0.95000,1.10000,0.90000
    85,'A85         ', 115.0000,1,   1,   1,   1,0.98843, -14.2242,1.05000,0.95000,1.10000,0.90000
    86,'A86         ', 230.0000,2,   1,   1,   1,1.01070,  -3.4762,1.05000,0.95000,1.10000,0.90000
    87,'A87         ', 230.0000,2,   1,   1,   1,1.00546,  -8.4346,1.05000,0.95000,1.10000,0.90000
    88,'A88         ',  35.0000,1,   1,   1,   1,1.00698,  -2.3835,1.05000,0.95000,1.10000,0.90000
    89,'A89         ',  35.0000,1,   1,   1,   1,0.99893,  -4.7118,1.05000,0.95000,1.10000,0.90000
    90,'A90         ', 230.0000,2,   1,   1,   1,1.00780,  -7.0785,1.05000,0.95000,1.10000,0.90000
    91,'A91         ', 115.0000,1,   1,   1,   1,1.00911, -11.7981,1.05000,0.95000,1.10000,0.90000
    92,'A92         ', 115.0000,1,   1,   1,   1,1.00869, -10.6555,1.05000,0.95000,1.10000,0.90000
    93,'A93         ', 115.0000,2,   1,   1,   1,1.01610,  -2.5024,1.05000,0.95000,1.10000,0.90000
    94,'A94         ', 115.0000,1,   1,   1,   1,0.98337,  -7.1085,1.05000,0.95000,1.10000,0.90000
    95,'B95         ', 345.0000,1,   1,   2,   1,0.98847, -16.7171,1.05000,0.95000,1.10000,0.90000
    96,'B96         ', 345.0000,1,   1,   2,   1,0.98843, -16.7226,1.05000,0.95000,1.10000,0.90000
    97,'B97         ', 345.0000,1,   1,   2,   1,0.99155, -16.7776,1.05000,0.95000,1.10000,0.90000
    98,'B98         ', 345.0000,2,   1,   2,   1,0.99163, -16.7830,1.05000,0.95000,1.10000,0.90000
    99,'B99         ', 345.0000,2,   1,   2,   1,0.99189, -16.2043,1.05000,0.95000,1.10000,0.90000
   100,'B100        ', 345.0000,2,   1,   2,   1,0.99193, -16.2248,1.05000,0.95000,1.10000,0.90000
   101,'B101        ', 345.0000,1,   1,   2,   1,1.00802, -17.9029,1.05000,0.95000,1.10000,0.90000
   102,'B102        ', 345.0000,1,   1,   2,   1,1.01053, -17.7138,1.05000,0.95000,1.10000,0.90000
   103,'B103        ', 138.0000,1,   1,   2,   1,1.02467, -14.6443,1.05000,0.95000,1.10000,0.90000
   104,'B104        ', 138.0000,1,   1,   2,   1,1.00814,  15.9252,1.05000,0.95000,1.10000,0.90000
   105,'B105        ', 138.0000,1,   1,   2,   1,1.00819,  15.7176,1.05000,0.95000,1.10000,0.90000
   106,'B106        ', 138.0000,1,   1,   2,   1,1.01266,  -3.6859,1.05000,0.95000,1.10000,0.90000
   107,'B107        ', 138.0000,1,   1,   2,   1,1.01269,  -3.6906,1.05000,0.95000,1.10000,0.90000
   108,'B108        ', 138.0000,1,   1,   2,   1,1.02587,  19.9938,1.05000,0.95000,1.10000,0.90000
   109,'B109        ', 138.0000,1,   1,   2,   1,1.01114, -16.0108,1.05000,0.95000,1.10000,0.90000
   110,'B110        ', 138.0000,1,   1,   2,   1,1.01276,  -3.6506,1.05000,0.95000,1.10000,0.90000
   111,'B111        ', 138.0000,1,   1,   2,   1,1.01276,  -3.6545,1.05000,0.95000,1.10000,0.90000
   112,'B112        ', 138.0000,1,   1,   2,   1,1.02573,  -5.6171,1.05000,0.95000,1.10000,0.90000
   113,'B113        ', 138.0000,1,   1,   2,   1,1.02573,  -5.6171,1.05000,0.95000,1.10000,0.90000
   114,'B114        ', 138.0000,1,   1,   2,   1,1.02585,  -5.6082,1.05000,0.95000,1.10000,0.90000
   115,'B115        ', 138.0000,1,   1,   2,   1,1.01115, -16.4952,1.05000,0.95000,1.10000,0.90000
   116,'B116        ', 138.0000,2,   1,   2,   1,1.01888, -14.3686,1.05000,0.95000,1.10000,0.90000
   117,'B117        ', 138.0000,2,   1,   2,   1,1.01908, -14.4155,1.05000,0.95000,1.10000,0.90000
   118,'B118        ', 138.0000,1,   1,   2,   1,1.01866, -15.1853,1.05000,0.95000,1.10000,0.90000
   119,'B119        ', 138.0000,1,   1,   2,   1,1.01881, -15.1752,1.05000,0.95000,1.10000,0.90000
   120,'B120        ', 138.0000,1,   1,   2,   1,1.01065, -16.2020,1.05000,0.95000,1.10000,0.90000
   121,'B121        ', 138.0000,2,   1,   2,   1,1.01422, -15.6525,1.05000,0.95000,1.10000,0.90000
   122,'B122        ', 138.0000,1,   1,   2,   1,1.01425, -15.6491,1.05000,0.95000,1.10000,0.90000
   123,'B123        ', 138.0000,1,   1,   2,   1,1.01425, -15.6491,1.05000,0.95000,1.10000,0.90000
   124,'B124        ', 138.0000,1,   1,   2,   1,1.01422, -15.6525,1.05000,0.95000,1.10000,0.90000
   125,'B125        ', 138.0000,1,   1,   2,   1,1.01120, -16.0060,1.05000,0.95000,1.10000,0.90000
   126,'B126        ', 138.0000,1,   1,   2,   1,1.01115, -16.4953,1.05000,0.95000,1.10000,0.90000
   127,'B127        ', 138.0000,1,   1,   2,   1,1.00933,  -3.0223,1.05000,0.95000,1.10000,0.90000
   128,'B128        ', 138.0000,1,   1,   2,   1,1.00900,  -2.9920,1.05000,0.95000,1.10000,0.90000
   129,'B129        ', 138.0000,1,   1,   2,   1,0.99577,   1.5492,1.05000,0.95000,1.10000,0.90000
   130,'B130        ', 138.0000,1,   1,   2,   1,0.99594,   1.5519,1.05000,0.95000,1.10000,0.90000
   131,'B131        ', 138.0000,2,   1,   2,   1,1.02557,  -5.6328,1.05000,0.95000,1.10000,0.90000
   132,'B132        ', 138.0000,1,   1,   2,   1,1.01872, -14.3801,1.05000,0.95000,1.10000,0.90000
   133,'B133        ', 138.0000,2,   1,   2,   1,1.01655, -16.5732,1.05000,0.95000,1.10000,0.90000
   134,'B134        ', 138.0000,2,   1,   2,   1,0.98562, -18.6939,1.05000,0.95000,1.10000,0.90000
   135,'B135        ', 138.0000,1,   1,   2,   1,1.01077, -16.0391,1.05000,0.95000,1.10000,0.90000
   136,'B136        ', 138.0000,1,   1,   2,   1,1.01418, -15.6556,1.05000,0.95000,1.10000,0.90000
   137,'B137        ', 138.0000,1,   1,   2,   1,1.00540,   1.2187,1.05000,0.95000,1.10000,0.90000
   138,'B138        ', 138.0000,1,   1,   2,   1,0.99247,   7.9294,1.05000,0.95000,1.10000,0.90000
   139,'B139        ', 138.0000,1,   1,   2,   1,0.99247,   7.9295,1.05000,0.95000,1.10000,0.90000
   140,'B140        ', 138.0000,1,   1,   2,   1,1.01312,  -3.5780,1.05000,0.95000,1.10000,0.90000
   141,'B141        ', 138.0000,1,   1,   2,   1,1.01505,  -3.4491,1.05000,0.95000,1.10000,0.90000
   142,'B142        ', 138.0000,1,   1,   2,   1,1.01961, -15.1176,1.05000,0.95000,1.10000,0.90000
   143,'B143        ', 138.0000,1,   1,   2,   1,1.01974, -15.1305,1.05000,0.95000,1.10000,0.90000
   144,'B144        ', 138.0000,1,   1,   2,   1,1.01120, -16.0060,1.05000,0.95000,1.10000,0.90000
   145,'B145        ', 138.0000,1,   1,   2,   1,1.01946, -14.5835,1.05000,0.95000,1.10000,0.90000
   146,'B146        ', 138.0000,1,   1,   2,   1,1.00985,  -4.3058,1.05000,0.95000,1.10000,0.90000
   147,'B147        ', 138.0000,1,   1,   2,   1,1.00983,  -4.3210,1.05000,0.95000,1.10000,0.90000
   148,'B148        ', 138.0000,1,   1,   2,   1,1.01559, -17.3929,1.05000,0.95000,1.10000,0.90000
   149,'B149        ', 138.0000,1,   1,   2,   1,1.01606, -17.3706,1.05000,0.95000,1.10000,0.90000
   150,'B150        ', 138.0000,1,   1,   2,   1,1.01106, -16.4998,1.05000,0.95000,1.10000,0.90000
   151,'B151        ', 138.0000,2,   1,   2,   1,0.99241,   1.7960,1.05000,0.95000,1.10000,0.90000
   152,'B152        ', 138.0000,2,   1,   2,   1,1.02455, -14.6424,1.05000,0.95000,1.10000,0.90000
   153,'B153        ', 138.0000,1,   1,   2,   1,1.01872, -14.7328,1.05000,0.95000,1.10000,0.90000
   154,'B154        ', 138.0000,1,   1,   2,   1,1.01882, -14.7494,1.05000,0.95000,1.10000,0.90000
   155,'B155        ', 138.0000,1,   1,   2,   1,1.01309,  -3.7330,1.05000,0.95000,1.10000,0.90000
   156,'B156        ', 138.0000,2,   1,   2,   1,1.01317,  -3.7155,1.05000,0.95000,1.10000,0.90000
   157,'B157        ', 138.0000,1,   1,   2,   1,1.02062,  -4.0627,1.05000,0.95000,1.10000,0.90000
   158,'B158        ', 138.0000,1,   1,   2,   1,1.02074,  -4.0558,1.05000,0.95000,1.10000,0.90000
   159,'B159        ', 138.0000,2,   1,   2,   1,1.01930,  -4.3989,1.05000,0.95000,1.10000,0.90000
   160,'B160        ', 138.0000,1,   1,   2,   1,1.01912,  -4.3953,1.05000,0.95000,1.10000,0.90000
   161,'B161        ', 138.0000,1,   1,   2,   1,1.01609, -15.4378,1.05000,0.95000,1.10000,0.90000
   162,'B162        ', 138.0000,1,   1,   2,   1,1.01594, -15.4611,1.05000,0.95000,1.10000,0.90000
   163,'B163        ', 138.0000,1,   1,   2,   1,1.01586,  -3.9324,1.05000,0.95000,1.10000,0.90000
   164,'B164        ', 138.0000,1,   1,   2,   1,1.01578,  -3.9251,1.05000,0.95000,1.10000,0.90000
   165,'B165        ', 138.0000,1,   1,   2,   1,1.01300,  -3.7387,1.05000,0.95000,1.10000,0.90000
   166,'B166        ', 138.0000,1,   1,   2,   1,1.01311,  -3.7202,1.05000,0.95000,1.10000,0.90000
   167,'B167        ', 138.0000,1,   1,   2,   1,1.01759, -15.1083,1.05000,0.95000,1.10000,0.90000
   168,'B168        ', 138.0000,1,   1,   2,   1,1.01750, -15.0773,1.05000,0.95000,1.10000,0.90000
   169,'B169        ', 138.0000,1,   1,   2,   1,1.01978,  18.8272,1.05000,0.95000,1.10000,0.90000
   170,'B170        ', 138.0000,1,   1,   2,   1,1.01989,  18.8351,1.05000,0.95000,1.10000,0.90000
   171,'B171        ', 138.0000,1,   1,   2,   1,1.01625,  -3.9932,1.05000,0.95000,1.10000,0.90000
   172,'B172        ', 138.0000,1,   1,   2,   1,1.01619,  -3.9896,1.05000,0.95000,1.10000,0.90000
   173,'B173        ', 138.0000,1,   1,   2,   1,0.99835,   1.3371,1.05000,0.95000,1.10000,0.90000
   174,'B174        ', 138.0000,1,   1,   2,   1,0.99916,   1.3952,1.05000,0.95000,1.10000,0.90000
   175,'B175        ', 138.0000,1,   1,   2,   1,1.01298, -16.9740,1.05000,0.95000,1.10000,0.90000
   176,'B176        ', 138.0000,1,   1,   2,   1,1.01313, -16.9901,1.05000,0.95000,1.10000,0.90000
   177,'B177        ', 138.0000,1,   1,   2,   1,1.01097, -16.4069,1.05000,0.95000,1.10000,0.90000
   178,'B178        ', 138.0000,1,   1,   2,   1,1.01097, -16.4069,1.05000,0.95000,1.10000,0.90000
   179,'B179        ', 138.0000,1,   1,   2,   1,0.99499,  10.1973,1.05000,0.95000,1.10000,0.90000
   180,'B180        ', 138.0000,1,   1,   2,   1,0.99458,  10.4046,1.05000,0.95000,1.10000,0.90000
   181,'B181        ', 138.0000,1,   1,   2,   1,1.00166,  -1.6730,1.05000,0.95000,1.10000,0.90000
   182,'B182        ', 138.0000,1,   1,   2,   1,1.00197,  -1.7062,1.05000,0.95000,1.10000,0.90000
   183,'B183        ', 138.0000,1,   1,   2,   1,0.99599,   0.0496,1.05000,0.95000,1.10000,0.90000
   184,'B184        ', 138.0000,1,   1,   2,   1,1.02029, -14.4897,1.05000,0.95000,1.10000,0.90000
   185,'B185        ', 138.0000,1,   1,   2,   1,1.02032, -14.5259,1.05000,0.95000,1.10000,0.90000
   186,'B186        ', 138.0000,1,   1,   2,   1,1.02055, -14.4767,1.05000,0.95000,1.10000,0.90000
   187,'B187        ', 138.0000,1,   1,   2,   1,1.02064, -14.5109,1.05000,0.95000,1.10000,0.90000
   188,'B188        ', 138.0000,1,   1,   2,   1,0.99384,   1.0184,1.05000,0.95000,1.10000,0.90000
   189,'B189        ', 138.0000,1,   1,   2,   1,0.99358,   1.0548,1.05000,0.95000,1.10000,0.90000
   190,'B190        ', 138.0000,2,   1,   2,   1,1.03300,  -5.0017,1.05000,0.95000,1.10000,0.90000
   191,'B191        ', 138.0000,1,   1,   2,   1,1.01110, -16.0992,1.05000,0.95000,1.10000,0.90000
   192,'B192        ', 138.0000,1,   1,   2,   1,1.01114, -16.0963,1.05000,0.95000,1.10000,0.90000
   193,'B193        ', 138.0000,1,   1,   2,   1,1.01091, -16.0284,1.05000,0.95000,1.10000,0.90000
   194,'B194        ', 138.0000,1,   1,   2,   1,1.02295, -11.9757,1.05000,0.95000,1.10000,0.90000
   195,'B195        ', 138.0000,1,   1,   2,   1,1.02311, -11.9632,1.05000,0.95000,1.10000,0.90000
   196,'B196        ', 138.0000,1,   1,   2,   1,1.03301,  -5.0018,1.05000,0.95000,1.10000,0.90000
   197,'B197        ', 138.0000,1,   1,   2,   1,1.01425, -15.6491,1.05000,0.95000,1.10000,0.90000
   198,'B198        ', 138.0000,1,   1,   2,   1,1.01068, -16.2761,1.05000,0.95000,1.10000,0.90000
   199,'B199        ', 138.0000,1,   1,   2,   1,1.01068, -16.2758,1.05000,0.95000,1.10000,0.90000
   200,'B200        ', 138.0000,1,   1,   2,   1,1.01282,  -3.7328,1.05000,0.95000,1.10000,0.90000
   201,'B201        ', 138.0000,1,   1,   2,   1,1.01287,  -3.7345,1.05000,0.95000,1.10000,0.90000
   202,'B202        ', 138.0000,1,   1,   2,   1,1.01273,  -3.7093,1.05000,0.95000,1.10000,0.90000
   203,'B203        ', 138.0000,1,   1,   2,   1,1.01271,  -3.7046,1.05000,0.95000,1.10000,0.90000
   204,'B204        ', 138.0000,1,   1,   2,   1,1.01303,  -3.6966,1.05000,0.95000,1.10000,0.90000
   205,'B205        ', 138.0000,1,   1,   2,   1,1.01302,  -3.6881,1.05000,0.95000,1.10000,0.90000
   206,'B206        ', 138.0000,1,   1,   2,   1,1.01290,  -3.7131,1.05000,0.95000,1.10000,0.90000
   207,'B207        ', 138.0000,1,   1,   2,   1,1.01288,  -3.7117,1.05000,0.95000,1.10000,0.90000
   208,'B208        ', 138.0000,1,   1,   2,   1,1.00477,  -5.2975,1.05000,0.95000,1.10000,0.90000
   209,'B209        ', 138.0000,1,   1,   2,   1,1.01891, -14.8059,1.05000,0.95000,1.10000,0.90000
   210,'B210        ', 138.0000,1,   1,   2,   1,1.01891, -14.8059,1.05000,0.95000,1.10000,0.90000
   211,'B211        ', 138.0000,1,   1,   2,   1,1.01891, -14.8059,1.05000,0.95000,1.10000,0.90000
   212,'C212        ', 345.0000,1,   1,   3,   1,1.00304,  -2.0782,1.05000,0.95000,1.10000,0.90000
   213,'C213        ', 345.0000,1,   1,   3,   1,1.02688,   0.0745,1.05000,0.95000,1.10000,0.90000
   214,'C214        ', 345.0000,1,   1,   3,   1,0.99602,  -5.0711,1.05000,0.95000,1.10000,0.90000
   215,'C215        ', 345.0000,1,   1,   3,   1,0.99597,  -5.0838,1.05000,0.95000,1.10000,0.90000
   216,'C216        ', 345.0000,1,   1,   3,   1,1.00402,  -3.5995,1.05000,0.95000,1.10000,0.90000
   217,'C217        ', 345.0000,1,   1,   3,   1,1.00412,  -3.6170,1.05000,0.95000,1.10000,0.90000
   218,'C218        ', 345.0000,1,   1,   3,   1,1.01182,  -1.3035,1.05000,0.95000,1.10000,0.90000
   219,'C219        ', 345.0000,1,   1,   3,   1,1.01170,  -1.3295,1.05000,0.95000,1.10000,0.90000
   220,'C220        ', 500.0000,1,   1,   3,   1,1.01320,  -4.1525,1.05000,0.95000,1.10000,0.90000
   221,'C221        ', 345.0000,2,   1,   3,   1,1.00623,  -2.2245,1.05000,0.95000,1.10000,0.90000
   222,'C222        ', 345.0000,2,   1,   3,   1,1.02864,   0.2750,1.05000,0.95000,1.10000,0.90000
   223,'C223        ', 500.0000,3,   1,   3,   1,1.01200,   0.0000,1.05000,0.95000,1.10000,0.90000
   224,'C224        ', 500.0000,2,   1,   3,   1,1.01200,  -0.0190,1.05000,0.95000,1.10000,0.90000
   225,'C225        ', 500.0000,1,   1,   3,   1,1.00111,  -1.4963,1.05000,0.95000,1.10000,0.90000
   226,'C226        ', 345.0000,1,   1,   3,   1,0.98850,  -7.0639,1.05000,0.95000,1.10000,0.90000
   227,'C227        ', 345.0000,1,   1,   3,   1,0.98859,  -7.0721,1.05000,0.95000,1.10000,0.90000
   228,'C228        ', 345.0000,1,   1,   3,   1,1.00846,  -2.1313,1.05000,0.95000,1.10000,0.90000
   229,'C229        ', 345.0000,1,   1,   3,   1,1.00841,  -2.1325,1.05000,0.95000,1.10000,0.90000
   230,'C230        ', 345.0000,1,   1,   3,   1,1.01108,  -1.8790,1.05000,0.95000,1.10000,0.90000
   231,'C231        ', 345.0000,1,   1,   3,   1,1.01110,  -1.8793,1.05000,0.95000,1.10000,0.90000
   232,'C232        ', 500.0000,1,   1,   3,   1,1.00405,  -0.9596,1.05000,0.95000,1.10000,0.90000
   233,'C233        ', 500.0000,2,   1,   3,   1,1.00410,  -0.9545,1.05000,0.95000,1.10000,0.90000
   234,'C234        ', 345.0000,1,   1,   3,   1,1.00153,  -1.9158,1.05000,0.95000,1.10000,0.90000
   235,'C235        ', 500.0000,1,   1,   3,   1,1.02476,  -2.2396,1.05000,0.95000,1.10000,0.90000
   236,'C236        ', 345.0000,2,   1,   3,   1,1.02045, -12.0842,1.05000,0.95000,1.10000,0.90000
   237,'C237        ', 138.0000,1,   1,   3,   1,0.99328,  -1.7950,1.05000,0.95000,1.10000,0.90000
   238,'C238        ', 138.0000,1,   1,   3,   1,0.99808,  -8.2531,1.05000,0.95000,1.10000,0.90000
   239,'C239        ', 138.0000,1,   1,   3,   1,0.99375,  -1.7291,1.05000,0.95000,1.10000,0.90000
   240,'C240        ', 138.0000,1,   1,   3,   1,0.99373,  -1.7334,1.05000,0.95000,1.10000,0.90000
   241,'C241        ', 138.0000,1,   1,   3,   1,1.00603,  -3.4821,1.05000,0.95000,1.10000,0.90000
   242,'C242        ', 138.0000,1,   1,   3,   1,0.98594,  -1.0414,1.05000,0.95000,1.10000,0.90000
   243,'C243        ', 138.0000,1,   1,   3,   1,0.98585,  -1.0633,1.05000,0.95000,1.10000,0.90000
   244,'C244        ', 138.0000,1,   1,   3,   1,0.99803,   0.6945,1.05000,0.95000,1.10000,0.90000
   245,'C245        ', 138.0000,1,   1,   3,   1,0.99790,   0.6601,1.05000,0.95000,1.10000,0.90000
   246,'C246        ',  24.0000,2,   1,   3,   1,1.01364,   5.1468,1.05000,0.95000,1.10000,0.90000
   247,'C247        ', 138.0000,1,   1,   3,   1,0.99072,  -1.5784,1.05000,0.95000,1.10000,0.90000
   248,'C248        ', 138.0000,1,   1,   3,   1,0.99749,   0.5955,1.05000,0.95000,1.10000,0.90000
   249,'C249        ', 138.0000,1,   1,   3,   1,0.99876,  -8.2025,1.05000,0.95000,1.10000,0.90000
   250,'C250        ', 138.0000,2,   1,   3,   1,0.99588,  -1.4729,1.05000,0.95000,1.10000,0.90000
   251,'C251        ', 138.0000,1,   1,   3,   1,0.98592,  -1.5755,1.05000,0.95000,1.10000,0.90000
   252,'C252        ', 138.0000,1,   1,   3,   1,0.98586,  -1.5679,1.05000,0.95000,1.10000,0.90000
   253,'C253        ', 138.0000,1,   1,   3,   1,1.00736,  -3.3116,1.05000,0.95000,1.10000,0.90000
   254,'C254        ', 138.0000,1,   1,   3,   1,1.00936,   0.3278,1.05000,0.95000,1.10000,0.90000
   255,'C255        ', 138.0000,1,   1,   3,   1,0.99588,  -1.4729,1.05000,0.95000,1.10000,0.90000
   256,'C256        ', 138.0000,2,   1,   3,   1,1.02455,   3.2910,1.05000,0.95000,1.10000,0.90000
   257,'C257        ', 138.0000,1,   1,   3,   1,1.01771,  -2.3084,1.05000,0.95000,1.10000,0.90000
   258,'C258        ', 138.0000,1,   1,   3,   1,1.02064,   2.7723,1.05000,0.95000,1.10000,0.90000
   259,'C259        ', 138.0000,1,   1,   3,   1,1.02055,   2.7460,1.05000,0.95000,1.10000,0.90000
   260,'C260        ', 138.0000,1,   1,   3,   1,1.01339,  -0.2992,1.05000,0.95000,1.10000,0.90000
   261,'C261        ', 138.0000,1,   1,   3,   1,1.01903,   1.6858,1.05000,0.95000,1.10000,0.90000
   262,'C262        ', 138.0000,1,   1,   3,   1,0.99763,   0.6086,1.05000,0.95000,1.10000,0.90000
   263,'C263        ', 138.0000,1,   1,   3,   1,0.99297,  -1.8512,1.05000,0.95000,1.10000,0.90000
   264,'C264        ', 138.0000,1,   1,   3,   1,0.99297,  -1.8507,1.05000,0.95000,1.10000,0.90000
   265,'D265        ', 345.0000,1,   1,   4,   1,1.00952, -33.4236,1.05000,0.95000,1.10000,0.90000
   266,'D266        ', 138.0000,1,   1,   4,   1,1.01501, -14.9014,1.05000,0.95000,1.10000,0.90000
   267,'D267        ',  69.0000,2,   1,   4,   1,1.01000, -10.2249,1.05000,0.95000,1.10000,0.90000
   268,'D268        ', 765.0000,2,   1,   4,   1,1.01800, -32.0561,1.05000,0.95000,1.10000,0.90000
   269,'D269        ', 138.0000,1,   1,   4,   1,1.00998, -12.6120,1.05000,0.95000,1.10000,0.90000
   270,'D270        ',  46.0000,1,   1,   4,   1,1.00856, -18.0712,1.05000,0.95000,1.10000,0.90000
   271,'D271        ',  69.0000,1,   1,   4,   1,1.00880, -17.0410,1.05000,0.95000,1.10000,0.90000
   272,'D272        ', 138.0000,2,   1,   4,   1,1.01940, -17.4880,1.05000,0.95000,1.10000,0.90000
   273,'D273        ',  46.0000,1,   1,   4,   1,1.00552, -16.3283,1.05000,0.95000,1.10000,0.90000
   274,'D274        ',  46.0000,1,   1,   4,   1,1.01675, -16.9968,1.05000,0.95000,1.10000,0.90000
   275,'D275        ', 138.0000,2,   1,   4,   1,1.01850, -14.6737,1.05000,0.95000,1.10000,0.90000
   276,'D276        ',  69.0000,1,   1,   4,   1,1.00300, -15.8284,1.05000,0.95000,1.10000,0.90000
   277,'D277        ', 345.0000,1,   1,   4,   1,1.00951, -33.4236,1.05000,0.95000,1.10000,0.90000
   278,'D278        ',  69.0000,1,   1,   4,   1,1.00242, -14.9370,1.05000,0.95000,1.10000,0.90000
   279,'D279        ',  69.0000,1,   1,   4,   1,1.00412, -15.8924,1.05000,0.95000,1.10000,0.90000
   280,'D280        ', 138.0000,1,   1,   4,   1,0.99853, -38.5307,1.05000,0.95000,1.10000,0.90000
   281,'D281        ',  46.0000,2,   1,   4,   1,1.01020, -14.5878,1.05000,0.95000,1.10000,0.90000
   282,'D282        ',  69.0000,1,   1,   4,   1,1.00078, -13.9145,1.05000,0.95000,1.10000,0.90000
   283,'D283        ', 138.0000,1,   1,   4,   1,0.99520, -34.3754,1.05000,0.95000,1.10000,0.90000
   284,'D284        ',  69.0000,1,   1,   4,   1,1.00403, -15.9809,1.05000,0.95000,1.10000,0.90000
   285,'D285        ',  46.0000,1,   1,   4,   1,1.01212, -17.3800,1.05000,0.95000,1.10000,0.90000
   286,'D286        ',  69.0000,1,   1,   4,   1,0.98875, -27.4272,1.05000,0.95000,1.10000,0.90000
   287,'D287        ',  46.0000,1,   1,   4,   1,1.00650, -14.7736,1.05000,0.95000,1.10000,0.90000
   288,'D288        ',  69.0000,1,   1,   4,   1,1.02111, -35.9134,1.05000,0.95000,1.10000,0.90000
   289,'D289        ',  69.0000,1,   1,   4,   1,0.99460, -15.4553,1.05000,0.95000,1.10000,0.90000
   290,'D290        ',  46.0000,1,   1,   4,   1,1.00668, -18.2326,1.05000,0.95000,1.10000,0.90000
   291,'D291        ', 138.0000,1,   1,   4,   1,1.00769,  -5.9271,1.05000,0.95000,1.10000,0.90000
   292,'D292        ', 138.0000,1,   1,   4,   1,1.00411, -15.5208,1.05000,0.95000,1.10000,0.90000
   293,'D293        ',  18.0000,2,   1,   4,   1,1.00952, -33.4236,1.05000,0.95000,1.10000,0.90000
   294,'D294        ', 138.0000,1,   1,   4,   1,1.00208, -14.7871,1.05000,0.95000,1.10000,0.90000
   295,'D295        ', 138.0000,1,   1,   4,   1,1.00763, -15.4839,1.05000,0.95000,1.10000,0.90000
   296,'D296        ',  18.0000,2,   1,   4,   1,1.00952, -33.4236,1.05000,0.95000,1.10000,0.90000
   297,'D297        ',   1.0000,1,   1,   4,   1,1.00661, -13.2437,1.05000,0.95000,1.10000,0.90000
   298,'D298        ',  46.0000,2,   1,   4,   1,1.02780, -18.3696,1.05000,0.95000,1.10000,0.90000
   299,'D299        ',  46.0000,1,   1,   4,   1,1.01204, -16.9822,1.05000,0.95000,1.10000,0.90000
   300,'D300        ', 138.0000,1,   1,   4,   1,1.01209, -12.1804,1.05000,0.95000,1.10000,0.90000
   301,'D301        ',  46.0000,1,   1,   4,   1,1.01209, -12.9373,1.05000,0.95000,1.10000,0.90000
   302,'D302        ',  46.0000,1,   1,   4,   1,1.00327, -17.8762,1.05000,0.95000,1.10000,0.90000
   303,'D303        ',  69.0000,1,   1,   4,   1,0.99497, -38.6439,1.05000,0.95000,1.10000,0.90000