0,   100.00, 33, 0, 1, 60.00     / PSS(R)E-33.7    FRI, AUG 24 2018  11:30
 GO Competition Network Model 03
 2015 S             REAL_TIME SEQUENCE RUN AT 2015/07/22 11.
     1,'A1          ', 115.0000,1,   1,   1,   1,0.99752,  -5.3818,1.05000,0.95000,1.10000,0.90000
     2,'A2          ', 115.0000,1,   1,   1,   1,1.01165, -10.7088,1.05000,0.95000,1.10000,0.90000
     3,'A3          ',  35.0000,1,   1,   1,   1,0.98814,  -7.2581,1.05000,0.95000,1.10000,0.90000
     4,'A4          ', 115.0000,1,   1,   1,   1,1.01404,  -3.3907,1.05000,0.95000,1.10000,0.90000
     5,'A5          ',  13.0000,1,   1,   1,   1,1.01082, -11.2648,1.05000,0.95000,1.10000,0.90000
     6,'A6          ',  14.0000,2,   1,   1,   1,1.00020,  -7.3866,1.05000,0.95000,1.10000,0.90000
     7,'A7          ', 115.0000,1,   1,   1,   1,0.99151,  -6.8623,1.05000,0.95000,1.10000,0.90000
     8,'A8          ',  13.0000,1,   1,   1,   1,1.01197, -10.6168,1.05000,0.95000,1.10000,0.90000
     9,'A9          ',  35.0000,1,   1,   1,   1,0.99112,  -6.5667,1.05000,0.95000,1.10000,0.90000
    10,'A10         ', 115.0000,1,   1,   1,   1,1.01003, -11.2020,1.05000,0.95000,1.10000,0.90000
    11,'A11         ', 115.0000,1,   1,   1,   1,1.00717, -11.8749,1.05000,0.95000,1.10000,0.90000
    12,'A12         ',  35.0000,1,   1,   1,   1,0.99419,  -5.5934,1.05000,0.95000,1.10000,0.90000
    13,'A13         ',  13.0000,1,   1,   1,   1,1.01457,  -8.9617,1.05000,0.95000,1.10000,0.90000
    15,'A15         ',  35.0000,1,   1,   1,   1,0.99666,  -7.3444,1.05000,0.95000,1.10000,0.90000
    16,'A16         ', 115.0000,1,   1,   1,   1,1.01660,  -1.0410,1.05000,0.95000,1.10000,0.90000
    17,'A17         ', 115.0000,1,   1,   1,   1,1.01665,  -3.3704,1.05000,0.95000,1.10000,0.90000
    18,'A18         ', 230.0000,1,   1,   1,   1,1.01006,  -4.9856,1.05000,0.95000,1.10000,0.90000
    19,'A19         ', 230.0000,1,   1,   1,   1,1.01012,  -4.9220,1.05000,0.95000,1.10000,0.90000
    20,'A20         ',  13.0000,1,   1,   1,   1,1.01406,  -3.4685,1.05000,0.95000,1.10000,0.90000
    21,'A21         ', 115.0000,1,   1,   1,   1,0.99689, -14.7157,1.05000,0.95000,1.10000,0.90000
    22,'A22         ', 115.0000,1,   1,   1,   1,0.99078,  -5.3238,1.05000,0.95000,1.10000,0.90000
    23,'A23         ', 115.0000,2,   1,   1,   1,1.01000,   1.5894,1.05000,0.95000,1.10000,0.90000
    24,'A24         ', 115.0000,1,   1,   1,   1,0.97810,  -7.9708,1.05000,0.95000,1.10000,0.90000
    25,'A25         ',  14.0000,2,   1,   1,   1,1.00020,  -7.3866,1.05000,0.95000,1.10000,0.90000
    27,'A27         ', 115.0000,1,   1,   1,   1,1.00976, -11.1856,1.05000,0.95000,1.10000,0.90000
    28,'A28         ',  35.0000,1,   1,   1,   1,0.99706,  -9.8089,1.05000,0.95000,1.10000,0.90000
    30,'A30         ', 115.0000,1,   1,   1,   1,0.98263,  -7.7266,1.05000,0.95000,1.10000,0.90000
    31,'A31         ', 230.0000,2,   1,   1,   1,1.00990,  -4.9844,1.05000,0.95000,1.10000,0.90000
    32,'A32         ', 115.0000,1,   1,   1,   1,1.01080, -10.8603,1.05000,0.95000,1.10000,0.90000
    33,'A33         ', 230.0000,2,   1,   1,   1,1.00842,  -5.6861,1.05000,0.95000,1.10000,0.90000
    34,'A34         ',  35.0000,1,   1,   1,   1,0.99269,  -3.2532,1.05000,0.95000,1.10000,0.90000
    35,'A35         ', 230.0000,2,   1,   1,   1,1.01012,  -4.9220,1.05000,0.95000,1.10000,0.90000
    36,'A36         ', 230.0000,1,   1,   1,   1,1.00842,  -5.6861,1.05000,0.95000,1.10000,0.90000
    37,'A37         ', 230.0000,1,   1,   1,   1,1.01128,  -8.5810,1.05000,0.95000,1.10000,0.90000
    38,'A38         ', 230.0000,1,   1,   1,   1,1.00912,  -5.1229,1.05000,0.95000,1.10000,0.90000
    39,'A39         ',  35.0000,1,   1,   1,   1,0.99120,  -4.2853,1.05000,0.95000,1.10000,0.90000
    40,'A40         ', 115.0000,1,   1,   1,   1,1.01467,  -2.3098,1.05000,0.95000,1.10000,0.90000
    41,'A41         ', 230.0000,1,   1,   1,   1,1.00528,  -9.3404,1.05000,0.95000,1.10000,0.90000
    43,'A43         ', 115.0000,2,   1,   1,   1,1.01310,  -3.3664,1.05000,0.95000,1.10000,0.90000
    44,'A44         ', 115.0000,1,   1,   1,   1,1.00749,   0.9044,1.05000,0.95000,1.10000,0.90000
    45,'A45         ', 230.0000,2,   1,   1,   1,1.00842,  -5.6861,1.05000,0.95000,1.10000,0.90000
    46,'A46         ', 230.0000,2,   1,   1,   1,1.00480,  -7.9073,1.05000,0.95000,1.10000,0.90000
    47,'A47         ', 115.0000,2,   1,   1,   1,1.01310,  -1.6178,1.05000,0.95000,1.10000,0.90000
    49,'A49         ',  35.0000,1,   1,   1,   1,0.99269,  -3.2532,1.05000,0.95000,1.10000,0.90000
    50,'A50         ', 115.0000,1,   1,   1,   1,1.01201, -10.6396,1.05000,0.95000,1.10000,0.90000
    51,'A51         ',  13.0000,1,   1,   1,   1,0.97723,  -8.0219,1.05000,0.95000,1.10000,0.90000
    52,'A52         ', 230.0000,2,   1,   1,   1,1.00510,  -9.3321,1.05000,0.95000,1.10000,0.90000
    53,'A53         ', 115.0000,1,   1,   1,   1,1.01296, -11.8926,1.05000,0.95000,1.10000,0.90000
    54,'A54         ',  35.0000,1,   1,   1,   1,0.99649, -12.0953,1.05000,0.95000,1.10000,0.90000
    55,'A55         ', 230.0000,2,   1,   1,   1,1.01080,  -7.3866,1.05000,0.95000,1.10000,0.90000
    56,'A56         ',  35.0000,1,   1,   1,   1,0.99547,  -5.4729,1.05000,0.95000,1.10000,0.90000
    57,'A57         ', 115.0000,1,   1,   1,   1,0.98410, -15.7472,1.05000,0.95000,1.10000,0.90000
    58,'A58         ', 115.0000,1,   1,   1,   1,1.02176, -11.0044,1.05000,0.95000,1.10000,0.90000
    59,'A59         ',  35.0000,2,   1,   1,   1,1.04000,   2.6462,1.05000,0.95000,1.10000,0.90000
    60,'A60         ', 115.0000,1,   1,   1,   1,0.99195,  -6.4797,1.05000,0.95000,1.10000,0.90000
    61,'A61         ',  13.0000,1,   1,   1,   1,1.00968, -11.2076,1.05000,0.95000,1.10000,0.90000
    62,'A62         ', 115.0000,1,   1,   1,   1,1.01404, -11.7958,1.05000,0.95000,1.10000,0.90000
    63,'A63         ', 230.0000,1,   1,   1,   1,1.00764,  -7.9637,1.05000,0.95000,1.10000,0.90000
    64,'A64         ',  35.0000,1,   1,   1,   1,1.00895,   1.5572,1.05000,0.95000,1.10000,0.90000
    65,'A65         ',  14.0000,2,   1,   1,   1,1.02484,   1.6935,1.05000,0.95000,1.10000,0.90000
    66,'A66         ', 230.0000,1,   1,   1,   1,1.01006,  -4.9856,1.05000,0.95000,1.10000,0.90000
    67,'A67         ', 115.0000,1,   1,   1,   1,0.99719,  -3.1642,1.05000,0.95000,1.10000,0.90000
    68,'A68         ', 115.0000,1,   1,   1,   1,1.00494, -13.3646,1.05000,0.95000,1.10000,0.90000
    69,'A69         ', 230.0000,1,   1,   1,   1,1.01015,  -4.9112,1.05000,0.95000,1.10000,0.90000
    70,'A70         ',  35.0000,1,   1,   1,   1,1.00113,  -2.5483,1.05000,0.95000,1.10000,0.90000
    71,'A71         ', 115.0000,2,   1,   1,   1,1.01590,  -0.9939,1.05000,0.95000,1.10000,0.90000
    72,'A72         ', 115.0000,1,   1,   1,   1,1.00979, -11.1201,1.05000,0.95000,1.10000,0.90000
    73,'A73         ', 115.0000,1,   1,   1,   1,0.99208,  -6.9126,1.05000,0.95000,1.10000,0.90000
    74,'A74         ', 115.0000,1,   1,   1,   1,1.01213, -10.5954,1.05000,0.95000,1.10000,0.90000
    75,'A75         ',  13.0000,1,   1,   1,   1,1.01475,  -3.5518,1.05000,0.95000,1.10000,0.90000
    76,'A76         ', 115.0000,1,   1,   1,   1,1.01523, -11.6785,1.05000,0.95000,1.10000,0.90000
    77,'A77         ',  35.0000,1,   1,   1,   1,0.98810,  -9.7980,1.05000,0.95000,1.10000,0.90000
    78,'A78         ',  35.0000,1,   1,   1,   1,0.98195,  -7.8048,1.05000,0.95000,1.10000,0.90000
    79,'A79         ', 230.0000,1,   1,   1,   1,1.01118,  -8.7686,1.05000,0.95000,1.10000,0.90000
    80,'A80         ',  14.0000,2,   1,   1,   1,1.01643,  -1.0473,1.05000,0.95000,1.10000,0.90000
    81,'A81         ', 115.0000,1,   1,   1,   1,1.01495,  -8.9191,1.05000,0.95000,1.10000,0.90000
    82,'A82         ', 115.0000,1,   1,   1,   1,1.01293, -11.8964,1.05000,0.95000,1.10000,0.90000
    83,'A83         ', 115.0000,1,   1,   1,   1,1.00662, -13.1696,1.05000,0.95000,1.10000,0.90000
    84,'A84         ', 115.0000,1,   1,   1,   1,1.00437, -13.4231,1.05000,0.95000,1.10000,0.90000
    85,'A85         ', 115.0000,1,   1,   1,   1,0.98403, -15.7549,1.05000,0.95000,1.10000,0.90000
    86,'A86         ', 230.0000,2,   1,   1,   1,1.01070,  -4.0028,1.05000,0.95000,1.10000,0.90000
    87,'A87         ', 230.0000,2,   1,   1,   1,1.00543,  -9.3664,1.05000,0.95000,1.10000,0.90000
    88,'A88         ',  35.0000,1,   1,   1,   1,1.00701,  -3.1590,1.05000,0.95000,1.10000,0.90000
    89,'A89         ',  35.0000,1,   1,   1,   1,0.99872,  -5.3636,1.05000,0.95000,1.10000,0.90000
    90,'A90         ', 230.0000,2,   1,   1,   1,1.00780,  -7.8751,1.05000,0.95000,1.10000,0.90000
    91,'A91         ', 115.0000,1,   1,   1,   1,1.00723, -13.0711,1.05000,0.95000,1.10000,0.90000
    92,'A92         ', 115.0000,1,   1,   1,   1,1.00810, -11.8324,1.05000,0.95000,1.10000,0.90000
    93,'A93         ', 115.0000,2,   1,   1,   1,1.01610,  -3.2650,1.05000,0.95000,1.10000,0.90000
    94,'A94         ', 115.0000,1,   1,   1,   1,0.97895,  -7.9187,1.05000,0.95000,1.10000,0.90000
    95,'B95         ', 345.0000,1,   1,   2,   1,0.98516, -16.1774,1.05000,0.95000,1.10000,0.90000
    96,'B96         ', 345.0000,1,   1,   2,   1,0.98512, -16.1829,1.05000,0.95000,1.10000,0.90000
    97,'B97         ', 345.0000,1,   1,   2,   1,0.98877, -16.2184,1.05000,0.95000,1.10000,0.90000
    98,'B98         ', 345.0000,2,   1,   2,   1,0.98887, -16.2233,1.05000,0.95000,1.10000,0.90000
    99,'B99         ', 345.0000,2,   1,   2,   1,0.98874, -15.6395,1.05000,0.95000,1.10000,0.90000
   100,'B100        ', 345.0000,2,   1,   2,   1,0.98879, -15.6608,1.05000,0.95000,1.10000,0.90000
   101,'B101        ', 345.0000,1,   1,   2,   1,1.00670, -17.4772,1.05000,0.95000,1.10000,0.90000
   102,'B102        ', 345.0000,1,   1,   2,   1,1.00949, -17.2684,1.05000,0.95000,1.10000,0.90000
   103,'B103        ', 138.0000,1,   1,   2,   1,1.02467, -13.9828,1.05000,0.95000,1.10000,0.90000
   104,'B104        ', 138.0000,1,   1,   2,   1,1.00447,  18.5893,1.05000,0.95000,1.10000,0.90000
   105,'B105        ', 138.0000,1,   1,   2,   1,1.00447,  18.3650,1.05000,0.95000,1.10000,0.90000
   106,'B106        ', 138.0000,1,   1,   2,   1,1.00936,  -1.7256,1.05000,0.95000,1.10000,0.90000
   107,'B107        ', 138.0000,1,   1,   2,   1,1.00936,  -1.7276,1.05000,0.95000,1.10000,0.90000
   108,'B108        ', 138.0000,1,   1,   2,   1,1.02495,  22.9573,1.05000,0.95000,1.10000,0.90000
   109,'B109        ', 138.0000,1,   1,   2,   1,1.01004, -15.4047,1.05000,0.95000,1.10000,0.90000
   110,'B110        ', 138.0000,1,   1,   2,   1,1.00946,  -1.7040,1.05000,0.95000,1.10000,0.90000
   111,'B111        ', 138.0000,1,   1,   2,   1,1.00945,  -1.7061,1.05000,0.95000,1.10000,0.90000
   112,'B112        ', 138.0000,1,   1,   2,   1,1.02497,  -3.8524,1.05000,0.95000,1.10000,0.90000
   113,'B113        ', 138.0000,1,   1,   2,   1,1.02497,  -3.8524,1.05000,0.95000,1.10000,0.90000
   114,'B114        ', 138.0000,1,   1,   2,   1,1.02510,  -3.8426,1.05000,0.95000,1.10000,0.90000
   115,'B115        ', 138.0000,1,   1,   2,   1,1.01017, -15.8889,1.05000,0.95000,1.10000,0.90000
   116,'B116        ', 138.0000,2,   1,   2,   1,1.01863, -13.5783,1.05000,0.95000,1.10000,0.90000
   117,'B117        ', 138.0000,2,   1,   2,   1,1.01883, -13.6227,1.05000,0.95000,1.10000,0.90000
   118,'B118        ', 138.0000,1,   1,   2,   1,1.01817, -14.5480,1.05000,0.95000,1.10000,0.90000
   119,'B119        ', 138.0000,1,   1,   2,   1,1.01833, -14.5368,1.05000,0.95000,1.10000,0.90000
   120,'B120        ', 138.0000,1,   1,   2,   1,1.00953, -15.6002,1.05000,0.95000,1.10000,0.90000
   121,'B121        ', 138.0000,2,   1,   2,   1,1.01336, -15.0335,1.05000,0.95000,1.10000,0.90000
   122,'B122        ', 138.0000,1,   1,   2,   1,1.01340, -15.0298,1.05000,0.95000,1.10000,0.90000
   123,'B123        ', 138.0000,1,   1,   2,   1,1.01340, -15.0298,1.05000,0.95000,1.10000,0.90000
   124,'B124        ', 138.0000,1,   1,   2,   1,1.01336, -15.0335,1.05000,0.95000,1.10000,0.90000
   125,'B125        ', 138.0000,1,   1,   2,   1,1.01010, -15.3995,1.05000,0.95000,1.10000,0.90000
   126,'B126        ', 138.0000,1,   1,   2,   1,1.01018, -15.8890,1.05000,0.95000,1.10000,0.90000
   127,'B127        ', 138.0000,1,   1,   2,   1,1.00587,  -1.1570,1.05000,0.95000,1.10000,0.90000
   128,'B128        ', 138.0000,1,   1,   2,   1,1.00552,  -1.1300,1.05000,0.95000,1.10000,0.90000
   129,'B129        ', 138.0000,1,   1,   2,   1,0.99077,   2.7157,1.05000,0.95000,1.10000,0.90000
   130,'B130        ', 138.0000,1,   1,   2,   1,0.99096,   2.7187,1.05000,0.95000,1.10000,0.90000
   131,'B131        ', 138.0000,2,   1,   2,   1,1.02479,  -3.8697,1.05000,0.95000,1.10000,0.90000
   132,'B132        ', 138.0000,1,   1,   2,   1,1.01845, -13.5910,1.05000,0.95000,1.10000,0.90000
   133,'B133        ', 138.0000,2,   1,   2,   1,1.01648, -15.4421,1.05000,0.95000,1.10000,0.90000
   134,'B134        ', 138.0000,2,   1,   2,   1,0.98210, -18.3697,1.05000,0.95000,1.10000,0.90000
   135,'B135        ', 138.0000,1,   1,   2,   1,1.00963, -15.4359,1.05000,0.95000,1.10000,0.90000
   136,'B136        ', 138.0000,1,   1,   2,   1,1.01332, -15.0369,1.05000,0.95000,1.10000,0.90000
   137,'B137        ', 138.0000,1,   1,   2,   1,1.00360,   1.7118,1.05000,0.95000,1.10000,0.90000
   138,'B138        ', 138.0000,1,   1,   2,   1,0.98616,   9.9545,1.05000,0.95000,1.10000,0.90000
   139,'B139        ', 138.0000,1,   1,   2,   1,0.98616,   9.9546,1.05000,0.95000,1.10000,0.90000
   140,'B140        ', 138.0000,1,   1,   2,   1,1.00997,  -1.6617,1.05000,0.95000,1.10000,0.90000
   141,'B141        ', 138.0000,1,   1,   2,   1,1.01208,  -1.4613,1.05000,0.95000,1.10000,0.90000
   142,'B142        ', 138.0000,1,   1,   2,   1,1.01955, -14.3078,1.05000,0.95000,1.10000,0.90000
   143,'B143        ', 138.0000,1,   1,   2,   1,1.01968, -14.3197,1.05000,0.95000,1.10000,0.90000
   144,'B144        ', 138.0000,1,   1,   2,   1,1.01010, -15.3994,1.05000,0.95000,1.10000,0.90000
   145,'B145        ', 138.0000,1,   1,   2,   1,1.01937, -13.7919,1.05000,0.95000,1.10000,0.90000
   146,'B146        ', 138.0000,1,   1,   2,   1,1.00599,  -2.3626,1.05000,0.95000,1.10000,0.90000
   147,'B147        ', 138.0000,1,   1,   2,   1,1.00598,  -2.3795,1.05000,0.95000,1.10000,0.90000
   148,'B148        ', 138.0000,1,   1,   2,   1,1.01537, -16.7501,1.05000,0.95000,1.10000,0.90000
   149,'B149        ', 138.0000,1,   1,   2,   1,1.01589, -16.7255,1.05000,0.95000,1.10000,0.90000
   150,'B150        ', 138.0000,1,   1,   2,   1,1.01007, -15.8940,1.05000,0.95000,1.10000,0.90000
   151,'B151        ', 138.0000,2,   1,   2,   1,0.98613,   3.3169,1.05000,0.95000,1.10000,0.90000
   152,'B152        ', 138.0000,2,   1,   2,   1,1.02455, -13.9809,1.05000,0.95000,1.10000,0.90000
   153,'B153        ', 138.0000,1,   1,   2,   1,1.01851, -13.9374,1.05000,0.95000,1.10000,0.90000
   154,'B154        ', 138.0000,1,   1,   2,   1,1.01861, -13.9532,1.05000,0.95000,1.10000,0.90000
   155,'B155        ', 138.0000,1,   1,   2,   1,1.00963,  -1.7279,1.05000,0.95000,1.10000,0.90000
   156,'B156        ', 138.0000,2,   1,   2,   1,1.00971,  -1.7053,1.05000,0.95000,1.10000,0.90000
   157,'B157        ', 138.0000,1,   1,   2,   1,1.01862,  -2.1406,1.05000,0.95000,1.10000,0.90000
   158,'B158        ', 138.0000,1,   1,   2,   1,1.01875,  -2.1330,1.05000,0.95000,1.10000,0.90000
   159,'B159        ', 138.0000,2,   1,   2,   1,1.01930,  -1.5963,1.05000,0.95000,1.10000,0.90000
   160,'B160        ', 138.0000,1,   1,   2,   1,1.01915,  -1.6047,1.05000,0.95000,1.10000,0.90000
   161,'B161        ', 138.0000,1,   1,   2,   1,1.01538, -14.8120,1.05000,0.95000,1.10000,0.90000
   162,'B162        ', 138.0000,1,   1,   2,   1,1.01522, -14.8363,1.05000,0.95000,1.10000,0.90000
   163,'B163        ', 138.0000,1,   1,   2,   1,1.01392,  -1.6069,1.05000,0.95000,1.10000,0.90000
   164,'B164        ', 138.0000,1,   1,   2,   1,1.01387,  -1.6054,1.05000,0.95000,1.10000,0.90000
   165,'B165        ', 138.0000,1,   1,   2,   1,1.00954,  -1.7342,1.05000,0.95000,1.10000,0.90000
   166,'B166        ', 138.0000,1,   1,   2,   1,1.00963,  -1.7104,1.05000,0.95000,1.10000,0.90000
   167,'B167        ', 138.0000,1,   1,   2,   1,1.01737, -14.2196,1.05000,0.95000,1.10000,0.90000
   168,'B168        ', 138.0000,1,   1,   2,   1,1.01729, -14.1937,1.05000,0.95000,1.10000,0.90000
   169,'B169        ', 138.0000,1,   1,   2,   1,1.01795,  21.7074,1.05000,0.95000,1.10000,0.90000
   170,'B170        ', 138.0000,1,   1,   2,   1,1.01807,  21.7161,1.05000,0.95000,1.10000,0.90000
   171,'B171        ', 138.0000,1,   1,   2,   1,1.01425,  -1.6201,1.05000,0.95000,1.10000,0.90000
   172,'B172        ', 138.0000,1,   1,   2,   1,1.01419,  -1.6221,1.05000,0.95000,1.10000,0.90000
   173,'B173        ', 138.0000,1,   1,   2,   1,0.99439,   2.2367,1.05000,0.95000,1.10000,0.90000
   174,'B174        ', 138.0000,1,   1,   2,   1,0.99529,   2.3011,1.05000,0.95000,1.10000,0.90000
   175,'B175        ', 138.0000,1,   1,   2,   1,1.01235, -16.3530,1.05000,0.95000,1.10000,0.90000
   176,'B176        ', 138.0000,1,   1,   2,   1,1.01251, -16.3682,1.05000,0.95000,1.10000,0.90000
   177,'B177        ', 138.0000,1,   1,   2,   1,1.00995, -15.8023,1.05000,0.95000,1.10000,0.90000
   178,'B178        ', 138.0000,1,   1,   2,   1,1.00995, -15.8023,1.05000,0.95000,1.10000,0.90000
   179,'B179        ', 138.0000,1,   1,   2,   1,0.98910,  12.4074,1.05000,0.95000,1.10000,0.90000
   180,'B180        ', 138.0000,1,   1,   2,   1,0.98869,  12.6319,1.05000,0.95000,1.10000,0.90000
   181,'B181        ', 138.0000,1,   1,   2,   1,0.99734,   0.0756,1.05000,0.95000,1.10000,0.90000
   182,'B182        ', 138.0000,1,   1,   2,   1,0.99766,   0.0455,1.05000,0.95000,1.10000,0.90000
   183,'B183        ', 138.0000,1,   1,   2,   1,0.99077,   1.6809,1.05000,0.95000,1.10000,0.90000
   184,'B184        ', 138.0000,1,   1,   2,   1,1.02007, -13.7449,1.05000,0.95000,1.10000,0.90000
   185,'B185        ', 138.0000,1,   1,   2,   1,1.02009, -13.7799,1.05000,0.95000,1.10000,0.90000
   186,'B186        ', 138.0000,1,   1,   2,   1,1.02035, -13.7306,1.05000,0.95000,1.10000,0.90000
   187,'B187        ', 138.0000,1,   1,   2,   1,1.02044, -13.7634,1.05000,0.95000,1.10000,0.90000
   188,'B188        ', 138.0000,1,   1,   2,   1,0.98803,   2.5870,1.05000,0.95000,1.10000,0.90000
   189,'B189        ', 138.0000,1,   1,   2,   1,0.98776,   2.6206,1.05000,0.95000,1.10000,0.90000
   190,'B190        ', 138.0000,2,   1,   2,   1,1.03300,  -3.1743,1.05000,0.95000,1.10000,0.90000
   191,'B191        ', 138.0000,1,   1,   2,   1,1.01000, -15.4937,1.05000,0.95000,1.10000,0.90000
   192,'B192        ', 138.0000,1,   1,   2,   1,1.01005, -15.4906,1.05000,0.95000,1.10000,0.90000
   193,'B193        ', 138.0000,1,   1,   2,   1,1.00978, -15.4241,1.05000,0.95000,1.10000,0.90000
   194,'B194        ', 138.0000,1,   1,   2,   1,1.02285, -11.1751,1.05000,0.95000,1.10000,0.90000
   195,'B195        ', 138.0000,1,   1,   2,   1,1.02303, -11.1612,1.05000,0.95000,1.10000,0.90000
   196,'B196        ', 138.0000,1,   1,   2,   1,1.03301,  -3.1745,1.05000,0.95000,1.10000,0.90000
   197,'B197        ', 138.0000,1,   1,   2,   1,1.01340, -15.0298,1.05000,0.95000,1.10000,0.90000
   198,'B198        ', 138.0000,1,   1,   2,   1,1.00958, -15.6742,1.05000,0.95000,1.10000,0.90000
   199,'B199        ', 138.0000,1,   1,   2,   1,1.00958, -15.6739,1.05000,0.95000,1.10000,0.90000
   200,'B200        ', 138.0000,1,   1,   2,   1,1.00939,  -1.7418,1.05000,0.95000,1.10000,0.90000
   201,'B201        ', 138.0000,1,   1,   2,   1,1.00942,  -1.7404,1.05000,0.95000,1.10000,0.90000
   202,'B202        ', 138.0000,1,   1,   2,   1,1.00936,  -1.7354,1.05000,0.95000,1.10000,0.90000
   203,'B203        ', 138.0000,1,   1,   2,   1,1.00935,  -1.7333,1.05000,0.95000,1.10000,0.90000
   204,'B204        ', 138.0000,1,   1,   2,   1,1.00960,  -1.6932,1.05000,0.95000,1.10000,0.90000
   205,'B205        ', 138.0000,1,   1,   2,   1,1.00962,  -1.6856,1.05000,0.95000,1.10000,0.90000
   206,'B206        ', 138.0000,1,   1,   2,   1,1.00945,  -1.7184,1.05000,0.95000,1.10000,0.90000
   207,'B207        ', 138.0000,1,   1,   2,   1,1.00943,  -1.7189,1.05000,0.95000,1.10000,0.90000
   208,'B208        ', 138.0000,1,   1,   2,   1,1.00034,  -3.4632,1.05000,0.95000,1.10000,0.90000
   209,'B209        ', 138.0000,1,   1,   2,   1,1.01872, -14.0078,1.05000,0.95000,1.10000,0.90000
   210,'B210        ', 138.0000,1,   1,   2,   1,1.01872, -14.0078,1.05000,0.95000,1.10000,0.90000
   211,'B211        ', 138.0000,1,   1,   2,   1,1.01872, -14.0078,1.05000,0.95000,1.10000,0.90000
   212,'C212        ', 345.0000,1,   1,   3,   1,1.00036,  -2.2040,1.05000,0.95000,1.10000,0.90000
   213,'C213        ', 345.0000,1,   1,   3,   1,1.02670,  -0.0310,1.05000,0.95000,1.10000,0.90000
   214,'C214        ', 345.0000,1,   1,   3,   1,0.99212,  -5.3270,1.05000,0.95000,1.10000,0.90000
   215,'C215        ', 345.0000,1,   1,   3,   1,0.99206,  -5.3417,1.05000,0.95000,1.10000,0.90000
   216,'C216        ', 345.0000,1,   1,   3,   1,1.00119,  -3.4972,1.05000,0.95000,1.10000,0.90000
   217,'C217        ', 345.0000,1,   1,   3,   1,1.00131,  -3.5192,1.05000,0.95000,1.10000,0.90000
   218,'C218        ', 345.0000,1,   1,   3,   1,1.01007,  -1.4590,1.05000,0.95000,1.10000,0.90000
   219,'C219        ', 345.0000,1,   1,   3,   1,1.00992,  -1.4859,1.05000,0.95000,1.10000,0.90000
   220,'C220        ', 500.0000,1,   1,   3,   1,1.01315,  -4.2250,1.05000,0.95000,1.10000,0.90000
   221,'C221        ', 345.0000,2,   1,   3,   1,1.00378,  -2.3170,1.05000,0.95000,1.10000,0.90000
   222,'C222        ', 345.0000,2,   1,   3,   1,1.02864,   0.1898,1.05000,0.95000,1.10000,0.90000
   223,'C223        ', 500.0000,3,   1,   3,   1,1.01200,   0.0000,1.05000,0.95000,1.10000,0.90000
   224,'C224        ', 500.0000,2,   1,   3,   1,1.01200,  -0.0240,1.05000,0.95000,1.10000,0.90000
   225,'C225        ', 500.0000,1,   1,   3,   1,0.99961,  -1.3021,1.05000,0.95000,1.10000,0.90000
   226,'C226        ', 345.0000,1,   1,   3,   1,0.98366,  -7.5409,1.05000,0.95000,1.10000,0.90000
   227,'C227        ', 345.0000,1,   1,   3,   1,0.98376,  -7.5500,1.05000,0.95000,1.10000,0.90000
   228,'C228        ', 345.0000,1,   1,   3,   1,1.00679,  -2.2261,1.05000,0.95000,1.10000,0.90000
   229,'C229        ', 345.0000,1,   1,   3,   1,1.00673,  -2.2275,1.05000,0.95000,1.10000,0.90000
   230,'C230        ', 345.0000,1,   1,   3,   1,1.00968,  -1.9476,1.05000,0.95000,1.10000,0.90000
   231,'C231        ', 345.0000,1,   1,   3,   1,1.00970,  -1.9484,1.05000,0.95000,1.10000,0.90000
   232,'C232        ', 500.0000,1,   1,   3,   1,1.00404,  -0.8824,1.05000,0.95000,1.10000,0.90000
   233,'C233        ', 500.0000,2,   1,   3,   1,1.00410,  -0.8777,1.05000,0.95000,1.10000,0.90000
   234,'C234        ', 345.0000,1,   1,   3,   1,0.99907,  -1.9878,1.05000,0.95000,1.10000,0.90000
   235,'C235        ', 500.0000,1,   1,   3,   1,1.02405,  -1.8608,1.05000,0.95000,1.10000,0.90000
   236,'C236        ', 345.0000,2,   1,   3,   1,1.02045, -12.9098,1.05000,0.95000,1.10000,0.90000
   237,'C237        ', 138.0000,1,   1,   3,   1,0.98943,  -2.1234,1.05000,0.95000,1.10000,0.90000
   238,'C238        ', 138.0000,1,   1,   3,   1,0.99273,  -8.8642,1.05000,0.95000,1.10000,0.90000
   239,'C239        ', 138.0000,1,   1,   3,   1,0.98997,  -2.0507,1.05000,0.95000,1.10000,0.90000
   240,'C240        ', 138.0000,1,   1,   3,   1,0.98995,  -2.0554,1.05000,0.95000,1.10000,0.90000
   241,'C241        ', 138.0000,1,   1,   3,   1,1.00509,  -2.7355,1.05000,0.95000,1.10000,0.90000
   242,'C242        ', 138.0000,1,   1,   3,   1,0.98188,  -1.5564,1.05000,0.95000,1.10000,0.90000
   243,'C243        ', 138.0000,1,   1,   3,   1,0.98178,  -1.5774,1.05000,0.95000,1.10000,0.90000
   244,'C244        ', 138.0000,1,   1,   3,   1,0.99552,   0.1555,1.05000,0.95000,1.10000,0.90000
   245,'C245        ', 138.0000,1,   1,   3,   1,0.99538,   0.1175,1.05000,0.95000,1.10000,0.90000
   246,'C246        ',  24.0000,2,   1,   3,   1,1.01364,   4.8928,1.05000,0.95000,1.10000,0.90000
   247,'C247        ', 138.0000,1,   1,   3,   1,0.98675,  -1.9324,1.05000,0.95000,1.10000,0.90000
   248,'C248        ', 138.0000,1,   1,   3,   1,0.99492,   0.0461,1.05000,0.95000,1.10000,0.90000
   249,'C249        ', 138.0000,1,   1,   3,   1,0.99349,  -8.8081,1.05000,0.95000,1.10000,0.90000
   250,'C250        ', 138.0000,2,   1,   3,   1,0.99237,  -1.7674,1.05000,0.95000,1.10000,0.90000
   251,'C251        ', 138.0000,1,   1,   3,   1,0.98165,  -2.0200,1.05000,0.95000,1.10000,0.90000
   252,'C252        ', 138.0000,1,   1,   3,   1,0.98158,  -2.0148,1.05000,0.95000,1.10000,0.90000
   253,'C253        ', 138.0000,1,   1,   3,   1,1.00648,  -2.6160,1.05000,0.95000,1.10000,0.90000
   254,'C254        ', 138.0000,1,   1,   3,   1,1.00880,   0.6121,1.05000,0.95000,1.10000,0.90000
   255,'C255        ', 138.0000,1,   1,   3,   1,0.99237,  -1.7674,1.05000,0.95000,1.10000,0.90000
   256,'C256        ', 138.0000,2,   1,   3,   1,1.02455,   3.2378,1.05000,0.95000,1.10000,0.90000
   257,'C257        ', 138.0000,1,   1,   3,   1,1.01479,  -2.5688,1.05000,0.95000,1.10000,0.90000
   258,'C258        ', 138.0000,1,   1,   3,   1,1.02019,   2.6931,1.05000,0.95000,1.10000,0.90000
   259,'C259        ', 138.0000,1,   1,   3,   1,1.02008,   2.6653,1.05000,0.95000,1.10000,0.90000
   260,'C260        ', 138.0000,1,   1,   3,   1,1.01318,   0.0342,1.05000,0.95000,1.10000,0.90000
   261,'C261        ', 138.0000,1,   1,   3,   1,1.01901,   1.8004,1.05000,0.95000,1.10000,0.90000
   262,'C262        ', 138.0000,1,   1,   3,   1,0.99507,   0.0606,1.05000,0.95000,1.10000,0.90000
   263,'C263        ', 138.0000,1,   1,   3,   1,0.98905,  -2.1853,1.05000,0.95000,1.10000,0.90000
   264,'C264        ', 138.0000,1,   1,   3,   1,0.98906,  -2.1847,1.05000,0.95000,1.10000,0.90000
   265,'D265        ', 345.0000,1,   1,   4,   1,1.00831, -34.1511,1.05000,0.95000,1.10000,0.90000
   266,'D266        ', 138.0000,1,   1,   4,   1,1.01441, -14.1334,1.05000,0.95000,1.10000,0.90000
   267,'D267        ',  69.0000,2,   1,   4,   1,1.01000,  -9.1598,1.05000,0.95000,1.10000,0.90000
   268,'D268        ', 765.0000,2,   1,   4,   1,1.01800, -32.6436,1.05000,0.95000,1.10000,0.90000
   269,'D269        ', 138.0000,1,   1,   4,   1,1.00747, -11.6129,1.05000,0.95000,1.10000,0.90000
   270,'D270        ',  46.0000,1,   1,   4,   1,1.00523, -17.5626,1.05000,0.95000,1.10000,0.90000
   271,'D271        ',  69.0000,1,   1,   4,   1,1.00472, -16.3298,1.05000,0.95000,1.10000,0.90000
   272,'D272        ', 138.0000,2,   1,   4,   1,1.01940, -16.8255,1.05000,0.95000,1.10000,0.90000
   273,'D273        ',  46.0000,1,   1,   4,   1,1.00214, -15.6421,1.05000,0.95000,1.10000,0.90000
   274,'D274        ',  46.0000,1,   1,   4,   1,1.01604, -16.3592,1.05000,0.95000,1.10000,0.90000
   275,'D275        ', 138.0000,2,   1,   4,   1,1.01850, -13.8814,1.05000,0.95000,1.10000,0.90000
   276,'D276        ',  69.0000,1,   1,   4,   1,1.00022, -15.1745,1.05000,0.95000,1.10000,0.90000
   277,'D277        ', 345.0000,1,   1,   4,   1,1.00830, -34.1511,1.05000,0.95000,1.10000,0.90000
   278,'D278        ',  69.0000,1,   1,   4,   1,0.99974, -14.1859,1.05000,0.95000,1.10000,0.90000
   279,'D279        ',  69.0000,1,   1,   4,   1,1.00100, -15.2414,1.05000,0.95000,1.10000,0.90000
   280,'D280        ', 138.0000,1,   1,   4,   1,0.99643, -39.7988,1.05000,0.95000,1.10000,0.90000
   281,'D281        ',  46.0000,2,   1,   4,   1,1.01020, -13.8305,1.05000,0.95000,1.10000,0.90000
   282,'D282        ',  69.0000,1,   1,   4,   1,0.99962, -13.0737,1.05000,0.95000,1.10000,0.90000
   283,'D283        ', 138.0000,1,   1,   4,   1,0.99334, -35.2018,1.05000,0.95000,1.10000,0.90000
   284,'D284        ',  69.0000,1,   1,   4,   1,1.00025, -15.3339,1.05000,0.95000,1.10000,0.90000
   285,'D285        ',  46.0000,1,   1,   4,   1,1.00838, -16.7628,1.05000,0.95000,1.10000,0.90000
   286,'D286        ',  69.0000,1,   1,   4,   1,0.98498, -27.5309,1.05000,0.95000,1.10000,0.90000
   287,'D287        ',  46.0000,1,   1,   4,   1,1.00462, -13.9809,1.05000,0.95000,1.10000,0.90000
   288,'D288        ',  69.0000,1,   1,   4,   1,1.01787, -36.9054,1.05000,0.95000,1.10000,0.90000
   289,'D289        ',  69.0000,1,   1,   4,   1,0.99203, -14.7840,1.05000,0.95000,1.10000,0.90000
   290,'D290        ',  46.0000,1,   1,   4,   1,1.00361, -17.7634,1.05000,0.95000,1.10000,0.90000
   291,'D291        ', 138.0000,1,   1,   4,   1,1.00773,  -4.4341,1.05000,0.95000,1.10000,0.90000
   292,'D292        ', 138.0000,1,   1,   4,   1,1.00073, -14.7097,1.05000,0.95000,1.10000,0.90000
   293,'D293        ',  18.0000,2,   1,   4,   1,1.00831, -34.1511,1.05000,0.95000,1.10000,0.90000
   294,'D294        ', 138.0000,1,   1,   4,   1,0.99943, -14.0230,1.05000,0.95000,1.10000,0.90000
   295,'D295        ', 138.0000,1,   1,   4,   1,1.00560, -14.7858,1.05000,0.95000,1.10000,0.90000
   296,'D296        ',  18.0000,2,   1,   4,   1,1.00831, -34.1511,1.05000,0.95000,1.10000,0.90000
   297,'D297        ',   1.0000,1,   1,   4,   1,1.00501, -12.3241,1.05000,0.95000,1.10000,0.90000
   298,'D298        ',  46.0000,2,   1,   4,   1,1.02780, -17.9260,1.05000,0.95000,1.10000,0.90000
   299,'D299        ',  46.0000,1,   1,   4,   1,1.00837, -16.2652,1.05000,0.95000,1.10000,0.90000
   300,'D300        ', 138.0000,1,   1,   4,   1,1.00976, -11.1361,1.05000,0.95000,1.10000,0.90000
   301,'D301        ',  46.0000,1,   1,   4,   1,1.01031, -11.9741,1.05000,0.95000,1.10000,0.90000
   302,'D302        ',  46.0000,1,   1,   4,   1,0.99889, -17.3278,1.05000,0.95000,1.10000,0.90000
   303,'D303        ',  69.0000,1,   1,   4,   1,0.98879, -39.9411,1.05000,0.95000,1.10000,0.90000